# generated using pymatgen
data_WO3
_symmetry_space_group_name_H-M   'P 1'
_cell_length_a   7.67759917
_cell_length_b   7.73374593
_cell_length_c   7.76418290
_cell_angle_alpha   90.00000000
_cell_angle_beta   90.00000000
_cell_angle_gamma   90.00009399
_symmetry_Int_Tables_number   1
_chemical_formula_structural   WO3
_chemical_formula_sum   'W8 O24'
_cell_volume   461.01079273
_cell_formula_units_Z   8
loop_
 _symmetry_equiv_pos_site_id
 _symmetry_equiv_pos_as_xyz
  1  'x, y, z'
loop_
 _atom_site_type_symbol
 _atom_site_label
 _atom_site_symmetry_multiplicity
 _atom_site_fract_x
 _atom_site_fract_y
 _atom_site_fract_z
 _atom_site_occupancy
  W  W0  1  0.251306  0.484534  0.265044  1
  W  W1  1  0.751308  0.515469  0.234966  1
  W  W2  1  0.248692  0.984531  0.234966  1
  W  W3  1  0.748694  0.015466  0.265044  1
  W  W4  1  0.748694  0.515466  0.734956  1
  W  W5  1  0.248692  0.484531  0.765034  1
  W  W6  1  0.751308  0.015469  0.765034  1
  W  W7  1  0.251306  0.984534  0.734956  1
  O  O8  1  0.258075  0.494474  0.003404  1
  O  O9  1  0.758074  0.505525  0.496599  1
  O  O10  1  0.241926  0.994475  0.496599  1
  O  O11  1  0.741925  0.005526  0.003404  1
  O  O12  1  0.741925  0.505526  0.996597  1
  O  O13  1  0.241926  0.494475  0.503401  1
  O  O14  1  0.758074  0.005525  0.503401  1
  O  O15  1  0.258075  0.994474  0.996597  1
  O  O16  1  0.000064  0.984839  0.758029  1
  O  O17  1  0.500063  0.015160  0.741970  1
  O  O18  1  0.499937  0.484840  0.741970  1
  O  O19  1  0.999936  0.515161  0.758029  1
  O  O20  1  0.999936  0.015161  0.241971  1
  O  O21  1  0.499937  0.984840  0.258030  1
  O  O22  1  0.500063  0.515160  0.258030  1
  O  O23  1  0.000064  0.484839  0.241971  1
  O  O24  1  0.265373  0.244532  0.251224  1
  O  O25  1  0.765372  0.255469  0.751221  1
  O  O26  1  0.234628  0.244531  0.751221  1
  O  O27  1  0.734627  0.755468  0.748776  1
  O  O28  1  0.734627  0.255468  0.251224  1
  O  O29  1  0.234628  0.744531  0.248780  1
  O  O30  1  0.765372  0.755469  0.248780  1
  O  O31  1  0.265373  0.744532  0.748776  1
