# generated using pymatgen
data_Nb3Si
_symmetry_space_group_name_H-M   'P 1'
_cell_length_a   5.21891783
_cell_length_b   10.27440285
_cell_length_c   10.27440285
_cell_angle_alpha   90.00000000
_cell_angle_beta   90.00000000
_cell_angle_gamma   90.00000000
_symmetry_Int_Tables_number   1
_chemical_formula_structural   Nb3Si
_chemical_formula_sum   'Nb24 Si8'
_cell_volume   550.92646999
_cell_formula_units_Z   8
loop_
 _symmetry_equiv_pos_site_id
 _symmetry_equiv_pos_as_xyz
  1  'x, y, z'
loop_
 _atom_site_type_symbol
 _atom_site_label
 _atom_site_symmetry_multiplicity
 _atom_site_fract_x
 _atom_site_fract_y
 _atom_site_fract_z
 _atom_site_occupancy
  Nb  Nb0  1  0.523177  0.103901  0.265945  1
  Nb  Nb1  1  0.023177  0.734055  0.603901  1
  Nb  Nb2  1  0.023177  0.765945  0.896099  1
  Nb  Nb3  1  0.523177  0.396099  0.234055  1
  Nb  Nb4  1  0.476823  0.896099  0.734055  1
  Nb  Nb5  1  0.976823  0.265945  0.396099  1
  Nb  Nb6  1  0.976823  0.234055  0.103901  1
  Nb  Nb7  1  0.476823  0.603901  0.765945  1
  Nb  Nb8  1  0.235792  0.059939  0.536339  1
  Nb  Nb9  1  0.735792  0.463661  0.559939  1
  Nb  Nb10  1  0.735792  0.036339  0.940061  1
  Nb  Nb11  1  0.235792  0.440061  0.963661  1
  Nb  Nb12  1  0.764208  0.940061  0.463661  1
  Nb  Nb13  1  0.264208  0.536339  0.440061  1
  Nb  Nb14  1  0.264208  0.963661  0.059939  1
  Nb  Nb15  1  0.764208  0.559939  0.036339  1
  Nb  Nb16  1  0.283660  0.665034  0.153297  1
  Nb  Nb17  1  0.783660  0.846703  0.165034  1
  Nb  Nb18  1  0.783660  0.653297  0.334966  1
  Nb  Nb19  1  0.283660  0.834966  0.346703  1
  Nb  Nb20  1  0.716340  0.334966  0.846703  1
  Nb  Nb21  1  0.216340  0.153297  0.834966  1
  Nb  Nb22  1  0.216340  0.346703  0.665034  1
  Nb  Nb23  1  0.716340  0.165034  0.653297  1
  Si  Si24  1  0.970621  0.544345  0.777834  1
  Si  Si25  1  0.470621  0.222166  0.044345  1
  Si  Si26  1  0.470621  0.277834  0.455655  1
  Si  Si27  1  0.970621  0.955655  0.722166  1
  Si  Si28  1  0.029379  0.455655  0.222166  1
  Si  Si29  1  0.529379  0.777834  0.955655  1
  Si  Si30  1  0.529379  0.722166  0.544345  1
  Si  Si31  1  0.029379  0.044345  0.277834  1
