# generated using pymatgen
data_Bi2O3
_symmetry_space_group_name_H-M   'P 1'
_cell_length_a   5.72670429
_cell_length_b   8.07516447
_cell_length_c   8.07516447
_cell_angle_alpha   90.00000000
_cell_angle_beta   90.00000000
_cell_angle_gamma   90.00000000
_symmetry_Int_Tables_number   1
_chemical_formula_structural   Bi2O3
_chemical_formula_sum   'Bi8 O12'
_cell_volume   373.42854379
_cell_formula_units_Z   4
loop_
 _symmetry_equiv_pos_site_id
 _symmetry_equiv_pos_as_xyz
  1  'x, y, z'
loop_
 _atom_site_type_symbol
 _atom_site_label
 _atom_site_symmetry_multiplicity
 _atom_site_fract_x
 _atom_site_fract_y
 _atom_site_fract_z
 _atom_site_occupancy
  O  O0  1  0.569979  0.000000  0.500000  1
  O  O1  1  0.430021  0.500000  0.000000  1
  O  O2  1  0.930021  0.500000  0.000000  1
  O  O3  1  0.069979  0.000000  0.500000  1
  O  O4  1  0.430813  0.712683  0.672564  1
  O  O5  1  0.430813  0.287317  0.327436  1
  O  O6  1  0.569187  0.327436  0.712683  1
  O  O7  1  0.569187  0.672564  0.287317  1
  O  O8  1  0.930813  0.172564  0.212683  1
  O  O9  1  0.069187  0.212683  0.827436  1
  O  O10  1  0.069187  0.787317  0.172564  1
  O  O11  1  0.930813  0.827436  0.787317  1
  Bi  Bi12  1  0.744434  0.764958  0.533047  1
  Bi  Bi13  1  0.744434  0.235042  0.466953  1
  Bi  Bi14  1  0.255566  0.466953  0.764958  1
  Bi  Bi15  1  0.255566  0.533047  0.235042  1
  Bi  Bi16  1  0.244434  0.966953  0.735042  1
  Bi  Bi17  1  0.755566  0.735042  0.033047  1
  Bi  Bi18  1  0.755566  0.264958  0.966953  1
  Bi  Bi19  1  0.244434  0.033047  0.264958  1
