# generated using pymatgen
data_CaTi4(CuO4)3
_symmetry_space_group_name_H-M   'P 1'
_cell_length_a   7.46006743
_cell_length_b   7.46006743
_cell_length_c   7.46006743
_cell_angle_alpha   90.00094898
_cell_angle_beta   90.00094898
_cell_angle_gamma   90.00094898
_symmetry_Int_Tables_number   1
_chemical_formula_structural   CaTi4(CuO4)3
_chemical_formula_sum   'Ca2 Ti8 Cu6 O24'
_cell_volume   415.17219378
_cell_formula_units_Z   2
loop_
 _symmetry_equiv_pos_site_id
 _symmetry_equiv_pos_as_xyz
  1  'x, y, z'
loop_
 _atom_site_type_symbol
 _atom_site_label
 _atom_site_symmetry_multiplicity
 _atom_site_fract_x
 _atom_site_fract_y
 _atom_site_fract_z
 _atom_site_occupancy
  Ca  Ca0  1  0.500000  0.500000  0.500000  1
  Ca  Ca1  1  0.000000  0.000000  0.000000  1
  Ti  Ti2  1  0.750868  0.750868  0.750868  1
  Ti  Ti3  1  0.750954  0.251227  0.749464  1
  Ti  Ti4  1  0.250536  0.249046  0.748773  1
  Ti  Ti5  1  0.249132  0.249132  0.249132  1
  Ti  Ti6  1  0.249046  0.748773  0.250536  1
  Ti  Ti7  1  0.748773  0.250536  0.249046  1
  Ti  Ti8  1  0.749464  0.750954  0.251227  1
  Ti  Ti9  1  0.251227  0.749464  0.750954  1
  Cu  Cu10  1  0.500000  0.000000  0.500000  1
  Cu  Cu11  1  0.500000  0.500000  0.000000  1
  Cu  Cu12  1  0.000000  0.000000  0.500000  1
  Cu  Cu13  1  0.000000  0.500000  0.500000  1
  Cu  Cu14  1  0.000000  0.500000  0.000000  1
  Cu  Cu15  1  0.500000  0.000000  0.000000  1
  O  O16  1  0.500375  0.197610  0.676638  1
  O  O17  1  0.302472  0.176695  0.999657  1
  O  O18  1  0.499625  0.802390  0.323362  1
  O  O19  1  0.802390  0.323362  0.499625  1
  O  O20  1  0.500335  0.803218  0.677973  1
  O  O21  1  0.303006  0.822272  0.000400  1
  O  O22  1  0.999657  0.302472  0.176695  1
  O  O23  1  0.822272  0.000400  0.303006  1
  O  O24  1  0.322027  0.499665  0.196782  1
  O  O25  1  0.197610  0.676638  0.500375  1
  O  O26  1  0.823305  0.000343  0.697528  1
  O  O27  1  0.499665  0.196782  0.322027  1
  O  O28  1  0.000343  0.697528  0.823305  1
  O  O29  1  0.176695  0.999657  0.302472  1
  O  O30  1  0.676638  0.500375  0.197610  1
  O  O31  1  0.999600  0.696994  0.177728  1
  O  O32  1  0.323362  0.499625  0.802390  1
  O  O33  1  0.000400  0.303006  0.822272  1
  O  O34  1  0.803218  0.677973  0.500335  1
  O  O35  1  0.677973  0.500335  0.803218  1
  O  O36  1  0.696994  0.177728  0.999600  1
  O  O37  1  0.697528  0.823305  0.000343  1
  O  O38  1  0.196782  0.322027  0.499665  1
  O  O39  1  0.177728  0.999600  0.696994  1
