# generated using pymatgen
data_CaFeO2
_symmetry_space_group_name_H-M   'P 1'
_cell_length_a   3.23115221
_cell_length_b   4.00345368
_cell_length_c   5.66175567
_cell_angle_alpha   45.00083816
_cell_angle_beta   90.00450231
_cell_angle_gamma   89.99984643
_symmetry_Int_Tables_number   1
_chemical_formula_structural   CaFeO2
_chemical_formula_sum   'Ca1 Fe1 O2'
_cell_volume   51.78866333
_cell_formula_units_Z   1
loop_
 _symmetry_equiv_pos_site_id
 _symmetry_equiv_pos_as_xyz
  1  'x, y, z'
loop_
 _atom_site_type_symbol
 _atom_site_label
 _atom_site_symmetry_multiplicity
 _atom_site_fract_x
 _atom_site_fract_y
 _atom_site_fract_z
 _atom_site_occupancy
  Ca  Ca0  1  0.498531  0.998183  0.500910  1
  Fe  Fe1  1  0.998622  0.998426  0.000781  1
  O  O2  1  0.996104  0.498640  0.000618  1
  O  O3  1  0.001465  0.498631  0.500755  1
